Version 4
SHEET 1 880 920
WIRE 16 96 -32 96
WIRE 144 96 96 96
WIRE 352 96 304 96
WIRE 480 96 432 96
WIRE 144 160 144 96
WIRE -224 192 -464 192
WIRE -176 192 -224 192
WIRE -32 192 -32 96
WIRE -32 192 -96 192
WIRE -464 208 -464 192
WIRE -32 240 -32 192
WIRE 16 240 -32 240
WIRE 480 240 480 96
WIRE 528 240 480 240
WIRE 592 240 528 240
WIRE 144 256 144 160
WIRE 144 256 80 256
WIRE 192 256 144 256
WIRE 304 256 304 96
WIRE 304 256 272 256
WIRE 352 256 304 256
WIRE 16 272 -32 272
WIRE 480 272 480 240
WIRE 480 272 416 272
WIRE 352 288 304 288
WIRE 528 288 528 240
WIRE -224 320 -464 320
WIRE -176 320 -224 320
WIRE -32 320 -32 272
WIRE -32 320 -96 320
WIRE 304 320 304 288
WIRE -464 336 -464 320
WIRE -32 352 -32 320
WIRE 528 416 528 368
WIRE -32 448 -32 432
WIRE -464 592 -464 560
WIRE 160 608 80 608
WIRE 240 608 160 608
WIRE 80 624 80 608
WIRE 160 624 160 608
WIRE 240 624 240 608
WIRE 496 624 496 608
WIRE -464 704 -464 672
WIRE -368 704 -464 704
WIRE 80 704 80 688
WIRE 160 704 160 688
WIRE 160 704 80 704
WIRE 240 704 240 688
WIRE 240 704 160 704
WIRE 336 704 240 704
WIRE 496 704 496 688
WIRE 608 704 496 704
WIRE -368 720 -368 704
WIRE 80 720 80 704
WIRE 160 720 160 704
WIRE 240 720 240 704
WIRE 336 720 336 704
WIRE 496 720 496 704
WIRE 608 720 608 704
WIRE -464 736 -464 704
WIRE 80 800 80 784
WIRE 160 800 160 784
WIRE 160 800 80 800
WIRE 240 800 240 784
WIRE 240 800 160 800
WIRE 496 800 496 784
WIRE -464 848 -464 816
FLAG -368 720 0
FLAG -464 560 V+
FLAG 48 224 V+
FLAG -464 848 V-
FLAG 48 288 V-
FLAG 592 240 V_NDIFF
IOPIN 592 240 Out
FLAG -32 448 0
FLAG 384 240 V+
FLAG 384 304 V-
FLAG -464 288 0
FLAG -464 416 0
FLAG 304 320 0
FLAG 528 416 0
FLAG -224 192 V_LEFT
FLAG -224 320 V_RIGHT
FLAG 144 160 V_DIFF
FLAG 336 720 0
FLAG 608 720 0
FLAG 160 800 V-
FLAG 496 800 V-
FLAG 160 608 V+
FLAG 496 608 V+
SYMBOL res -80 176 R90
WINDOW 0 0 56 VBottom 2
WINDOW 3 32 56 VTop 2
SYMATTR InstName R1
SYMATTR Value 1K
SYMATTR SpiceLine tol=1 pwr=0.1
SYMBOL res 112 80 R90
WINDOW 0 0 56 VBottom 2
WINDOW 3 32 56 VTop 2
SYMATTR InstName R2
SYMATTR Value 1K
SYMBOL res -80 304 R90
WINDOW 0 0 56 VBottom 2
WINDOW 3 32 56 VTop 2
SYMATTR InstName R3
SYMATTR Value 1K
SYMBOL voltage -464 576 R0
WINDOW 123 0 0 Left 0
WINDOW 39 0 0 Left 0
SYMATTR InstName V1
SYMATTR Value 4.8
SYMBOL voltage -464 720 R0
WINDOW 123 0 0 Left 0
WINDOW 39 0 0 Left 0
SYMATTR InstName V2
SYMATTR Value 4.8
SYMBOL Opamps\\AD823 48 192 R0
SYMATTR InstName U1
SYMBOL res -48 336 R0
SYMATTR InstName R4
SYMATTR Value 1K
SYMBOL Opamps\\AD823 384 208 R0
SYMATTR InstName U2
SYMBOL res 288 240 R90
WINDOW 0 0 56 VBottom 2
WINDOW 3 32 56 VTop 2
SYMATTR InstName R5
SYMATTR Value 1K
SYMBOL res 448 80 R90
WINDOW 0 0 56 VBottom 2
WINDOW 3 32 56 VTop 2
SYMATTR InstName R6
SYMATTR Value 1K
SYMBOL voltage -464 192 R0
WINDOW 123 0 0 Left 0
WINDOW 39 0 0 Left 0
WINDOW 3 52 54 Left 2
SYMATTR Value SINE(1 1 300)
SYMATTR InstName V3
SYMBOL voltage -464 320 R0
WINDOW 123 0 0 Left 0
WINDOW 39 0 0 Left 0
WINDOW 3 49 55 Left 2
SYMATTR Value SINE(1 1 100)
SYMATTR InstName V4
SYMBOL res 512 272 R0
SYMATTR InstName R7
SYMATTR Value 100K
SYMBOL cap 64 624 R0
SYMATTR InstName C1
SYMATTR Value 10µ
SYMBOL cap 64 720 R0
SYMATTR InstName C2
SYMATTR Value 10µ
SYMBOL cap 144 624 R0
SYMATTR InstName C3
SYMATTR Value 0.1µ
SYMBOL cap 144 720 R0
SYMATTR InstName C4
SYMATTR Value 0.1µ
SYMBOL cap 224 624 R0
SYMATTR InstName C5
SYMATTR Value 0.01µ
SYMBOL cap 224 720 R0
SYMATTR InstName C6
SYMATTR Value 0.01µ
SYMBOL cap 480 624 R0
SYMATTR InstName C7
SYMATTR Value 0.1µ
SYMBOL cap 480 720 R0
SYMATTR InstName C8
SYMATTR Value 0.1µ
TEXT -392 72 Left 2 !.tran 0 0.01 0.0001
